/*--------------------------------*- C++ -*----------------------------------*\
| =========                 |                                                 |
| \\      /  F ield         | OpenFOAM: The Open Source CFD Toolbox           |
|  \\    /   O peration     | Version:  2.4.0                                 |
|   \\  /    A nd           | Web:      www.OpenFOAM.org                      |
|    \\/     M anipulation  |                                                 |
\*---------------------------------------------------------------------------*/
FoamFile
{
    version     2.0;
    format      binary;
    class       polyBoundaryMesh;
    location    "constant/polyMesh";
    object      boundary;
}
// * * * * * * * * * * * * * * * * * * * * * * * * * * * * * * * * * * * * * //

6
(
    lower
    {
        type            patch;
        nFaces          400;
        startFace       22800;
    }
    upper
    {
        type            patch;
        nFaces          400;
        startFace       23200;
    }
    west
    {
        type            patch;
        nFaces          400;
        startFace       23600;
    }
    east
    {
        type            patch;
        nFaces          400;
        startFace       24000;
    }
    north
    {
        type            patch;
        nFaces          400;
        startFace       24400;
    }
    south
    {
        type            patch;
        nFaces          400;
        startFace       24800;
    }
)

// ************************************************************************* //
